LAMMPS (30 Jul 2016)
atom_style         meso-molecular
dimension          3
newton             on
units              micro
read_data          zs_coating_50_1.50.data
  orthogonal box = (0 0 0) to (450 24 240)
  reading atoms ...
  42464 atoms

variable           h         equal 2.0
variable           h_act     equal 3.0
variable 		   h_mix	 equal (2+3)/2.0
variable           c     equal 100.0             # soundspeed for Tait's EOS
variable           dt    equal 0.0001
variable		   visc  equal 2357.8			 # viscosity in g/m*s (avg visc should be 2.3578 kg/m*s)

group              cbd type 1
5366 atoms in group cbd
group			   solvent type 2
24666 atoms in group solvent
group  			   cbd_solvent type 1 2
30032 atoms in group cbd_solvent
group			   active type 3
6576 atoms in group active
group              slurry type 1 2 3
36608 atoms in group slurry
group              bc type 4
4788 atoms in group bc

pair_style         hybrid/overlay sph/rhosum 1 sph/taitwater/morris
pair_coeff         * * sph/taitwater/morris 0.93 100 2357.8 2
pair_coeff         * * sph/rhosum 2

timestep    0.0001

# time-integrate position, velocities, internal energy and density of cbd particles
fix                integrate_slurry_fix slurry meso
# time-integrate only internal energy and density of boundary particles
fix                integrate_bc_fix bc meso/stationary

dump               dump_id all custom 10000 zs_coating_50_small.lammpstrj id type mol xs ys zs
dump_modify        dump_id first yes
dump_modify 	   dump_id sort 3

#compute thermo_temp slurry temp
#thermo_modify temp slurry
uncompute thermo_temp
compute thermo_temp slurry temp
thermo             1000
thermo_style       custom step time temp press density lx ly lz
thermo_modify      norm no

neigh_modify       every 5 delay 0 check no
variable           skin equal 0.3*2
neighbor           0.6 bin

fix make_rigid active rigid/nvt molecule temp 30000 3000 30
3288 rigid bodies with 6576 atoms

variable g equal 9.8/1000000
fix add_gravity slurry gravity 9.8e-06 vector 0 0 -1

variable wiggle_s equal swiggle(0,2000,10)
variable wiggle_c equal cwiggle(0,-2000,10)

#fix strong_gravity slurry addforce 0.0 0.0 -0.05

group stir_bar molecule 2
6 atoms in group stir_bar
#fix stir_the_bar stir_bar addforce v_wiggle_s 0.0 v_wiggle_c
#fix stir cbd addforce v_wiggle_s 0.0 v_wiggle_c
fix stir slurry langevin 10000000000 10000000000 10 234
#fix stir slurry nvt temp 10000000000 10000000000 10
group moving_surface molecule 1
2716 atoms in group moving_surface
#fix move_surface moving_surface move linear 0.09 0 0 # Speed is in m/s (coating speeds vary from 1/60 m/s to 10/60 m/s)

group bottom_wall type 6
288 atoms in group bottom_wall
group piston_wall type 5
780 atoms in group piston_wall

variable piston_speed equal -0.04
variable surface_speed equal abs(-0.04*3)

# Stir
run 300000
  2 neighbor list requests
  update every 5 steps, delay 0 steps, check no
Step Time Temp Press Density Lx Ly Lz
0            0            0    1.3199298  0.060943704          450           24          240
Averages over the last 151 of 301 rows, steps 150000 to 300000:
Temp Press Density Lx Ly Lz
2.52307e+08 0.446839 0.0609437 450 24 240
Loop time of 2418.03 on 12 procs for 300000 steps with 42464 atoms

unfix stir
#unfix stir_the_bar

# Cool
#fix cool slurry langevin 300 300 10 234
#run 10000
#unfix cool

# Apply extra gravity
fix extra_gravity slurry addforce 0.0 0.0 -8.0
run 300000
Step Time Temp Press Density Lx Ly Lz
300000           30 2.4942768e+08   0.34321198  0.060943704          450           24          240
Averages over the last 151 of 301 rows, steps 450000 to 600000:
Temp Press Density Lx Ly Lz
8.68048e+06 3.57584 0.0609437 450 24 240
Loop time of 4389.83 on 12 procs for 300000 steps with 42464 atoms

unfix extra_gravity

# Move piston wall to starting position
variable dz equal bound(slurry,zmax)-bound(piston_wall,zmin)+0.2
displace_atoms piston_wall move 0 0 -56.4397279561855
run 1000
Step Time Temp Press Density Lx Ly Lz
600000           60    458075.02    6.2477923  0.060943704          450           24          240
Loop time of 16.6573 on 12 procs for 1000 steps with 42464 atoms

# Expansion step
run 50000
Step Time Temp Press Density Lx Ly Lz
601000         60.1    2255767.1    3.1614117  0.060943704          450           24          240
Averages over the last 26 of 51 rows, steps 626000 to 651000:
Temp Press Density Lx Ly Lz
4.46206e+07 2.20624 0.0609437 450 24 240
Loop time of 836.1 on 12 procs for 50000 steps with 42464 atoms

# Cooling step
#fix cool slurry langevin 300 300 10 234
fix cool cbd_solvent nvt temp 3000 3000 30
run 50000
Step Time Temp Press Density Lx Ly Lz
651000         65.1     11511467    2.0016612  0.060943704          450           24          240
Averages over the last 26 of 51 rows, steps 676000 to 701000:
Temp Press Density Lx Ly Lz
633061 1.65329 0.0609437 450 24 240
Loop time of 861.969 on 12 procs for 50000 steps with 42464 atoms

#unfix cool
# Start moving piston wall and hopper
dump_modify        dump_id every 25000
fix push_piston piston_wall move linear 0.12 0.0 -0.04
variable z_max equal bound(piston_wall,zmax)
variable z_min equal bound(bottom_wall,zmin)
variable run_length equal abs(floor((153.560272043815-60-3)/(-0.04*0.0001)))
delete_atoms group bottom_wall
Deleted 288 atoms, new total = 42176
group walls type 4
4788 atoms in group walls
group hopper subtract walls moving_surface
2088 atoms in group hopper
fix move_hopper hopper move linear 0.12 0.0 0.0
print 22640069
22640069
run 22640069
Step Time Temp Press Density Lx Ly Lz
701000         70.1    124592.05    1.5464533   0.06053037          450           24          240
Averages over the last 2345 of 4690 rows, steps 3046000 to 5390000:
Temp Press Density Lx Ly Lz
551388 0.263786 0.0605304 450 24 240
