LAMMPS (30 Jul 2016)
atom_style         meso-molecular
dimension          3
newton             on
units              micro

read_data          33_fell.data
  orthogonal box = (86.4849 86.4849 249.455) to (113.515 113.515 340.545)
  reading atoms ...
  9163 atoms
  reading velocities ...
  9163 velocities

variable           h         equal 2.0
variable           h_act     equal 3.0
variable 		   h_mix	 equal (2+3)/2.0
variable           c     equal 100.0             # soundspeed for Tait's EOS
variable           dt    equal 0.0001
variable		   visc  equal 2357.8			 # viscosity in g/m*s (avg visc should be 2.3578 kg/m*s)

group              cbd type 1
1086 atoms in group cbd
group			   active type 2
1568 atoms in group active
group			   solvent type 3
6313 atoms in group solvent
group  			   cbd_solvent type 1 3
7399 atoms in group cbd_solvent
group      		   cbd_active type 1 2
2654 atoms in group cbd_active

group              slurry type 1 2 3
8967 atoms in group slurry
group              bc type 4
0 atoms in group bc

pair_style         hybrid/overlay sph/rhosum 1 sph/taitwater/morris
pair_coeff         * * sph/taitwater/morris 0.93 100 2357.8 2
pair_coeff         * * sph/rhosum 2

timestep    0.0001

# time-integrate position, velocities, internal energy and density of cbd particles
fix                integrate_slurry_fix slurry meso
# time-integrate only internal energy and density of boundary particles
fix                integrate_bc_fix bc meso/stationary

dump               dump_id all custom 10000 long_dried_33.lammpstrj id type mol xs ys zs
dump_modify        dump_id first yes
dump_modify 	   dump_id sort 3

#compute thermo_temp slurry temp
#thermo_modify temp slurry
uncompute thermo_temp
compute thermo_temp slurry temp
thermo             1000
thermo_style       custom step time temp press density lx ly lz
thermo_modify      norm no

neigh_modify       every 5 delay 0 check no
variable           skin equal 0.3*2
neighbor           0.6 bin
#change_box all boundary p p f
fix make_rigid active rigid molecule
49 rigid bodies with 1568 atoms

run 30000
  2 neighbor list requests
  update every 5 steps, delay 0 steps, check no
Step Time Temp Press Density Lx Ly Lz
0            0    9107.4677    3.8989423   0.51215969    27.030268    27.030268    91.090804
Averages over the last 16 of 31 rows, steps 15000 to 30000:
Temp Press Density Lx Ly Lz
3.21435e+06 3.95219 0.51216 27.0303 27.0303 91.0908
Loop time of 21.9511 on 12 procs for 30000 steps with 9163 atoms

variable g equal 9.8/100

fix add_gravity slurry gravity 0.098 vector 0 0 -1
run 100000
Step Time Temp Press Density Lx Ly Lz
30000            3    4819502.3    3.8281065   0.51215969    27.030268    27.030268    91.090804
Averages over the last 51 of 101 rows, steps 80000 to 130000:
Temp Press Density Lx Ly Lz
2.67682e+06 4.49132 0.51216 27.0303 27.0303 91.0908
Loop time of 111.147 on 12 procs for 100000 steps with 9163 atoms

variable slurry_height equal bound(active,zmax)

print 338.538012874869
338.538012874869

region evap_region_upper block 0 EDGE 0 EDGE 338.538012874869 EDGE
region evap_region_lower block 0 EDGE 0 EDGE 0 338.538012874869

fix evap_upper solvent evaporate 1000 10 evap_region_upper 139
fix evap_lower solvent evaporate 10000 2 evap_region_lower 138

#fix heat_solvent solvent langevin 100000000 100000000 10 234

run 3000000
Step Time Temp Press Density Lx Ly Lz
130000           13    3373625.4    3.9094869   0.51215969    27.030268    27.030268    91.090804
Averages over the last 1501 of 3001 rows, steps 1630000 to 3130000:
Temp Press Density Lx Ly Lz
31174.1 4.72745 0.485604 27.0303 27.0303 91.0908
Loop time of 2193.73 on 12 procs for 3000000 steps with 8537 atoms

unfix evap_upper

variable slurry_height_2 equal bound(active,zmax)

print 338.412442701832
338.412442701832

region evap_region_upper_2 block 0 EDGE 0 EDGE 338.412442701832 EDGE

fix evap_upper_2 solvent evaporate 1000 10 evap_region_upper_2 139

run 3000000
Step Time Temp Press Density Lx Ly Lz
3130000          313    22432.509    3.6819411   0.47716984    27.030268    27.030268    91.090804
Averages over the last 1501 of 3001 rows, steps 4630000 to 6130000:
Temp Press Density Lx Ly Lz
52430.4 4.46187 0.452068 27.0303 27.0303 91.0908
Loop time of 6715.27 on 12 procs for 3000000 steps with 7937 atoms

unfix evap_upper_2

variable slurry_height_3 equal bound(active,zmax)

print 337.057087957033
337.057087957033

region evap_region_upper_3 block 0 EDGE 0 EDGE 337.057087957033 EDGE

fix evap_upper_3 solvent evaporate 1000 10 evap_region_upper_3 139

run 30000000
Step Time Temp Press Density Lx Ly Lz
6130000          613    58080.477    3.4183359   0.44363325    27.030268    27.030268    91.090804
Averages over the last 15001 of 30001 rows, steps 21130000 to 36130000:
Temp Press Density Lx Ly Lz
31303.3 3.25223 0.19991 27.0303 27.0303 91.0908
Loop time of 62377.8 on 12 procs for 30000000 steps with 2850 atoms
